Test_Network/condensed/network_17/Lines.txt
New Line.LINE11 Bus1=11 Bus2=12 phases=3 Linecode=3c_300_SAC_XC Length=0.44359 Units=m
New Line.LINE12 Bus1=12 Bus2=13 phases=3 Linecode=3c_300_SAC_XC Length=0.038329 Units=m
New Line.LINE13 Bus1=13 Bus2=14 phases=3 Linecode=3c_300_SAC_XC Length=0.039115 Units=m
New Line.LINE14 Bus1=14 Bus2=15 phases=3 Linecode=3c_300_SAC_XC Length=0.038118 Units=m
New Line.LINE15 Bus1=15 Bus2=16 phases=3 Linecode=3c_300_SAC_XC Length=0.038602 Units=m
New Line.LINE16 Bus1=16 Bus2=17 phases=3 Linecode=3c_300_SAC_XC Length=0.038483 Units=m
New Line.LINE17 Bus1=17 Bus2=18 phases=3 Linecode=3c_300_SAC_XC Length=0.039408 Units=m
New Line.LINE18 Bus1=18 Bus2=19 phases=3 Linecode=3c_300_SAC_XC Length=0.03821 Units=m
New Line.LINE19 Bus1=19 Bus2=110 phases=3 Linecode=3c_300_SAC_XC Length=0.038834 Units=m
New Line.LINE110 Bus1=110 Bus2=111 phases=3 Linecode=3c_300_SAC_XC Length=0.67833 Units=m
New Line.LINE111 Bus1=111 Bus2=112 phases=3 Linecode=3c_300_SAC_XC Length=0.89525 Units=m
New Line.LINE112 Bus1=112 Bus2=113 phases=3 Linecode=3c_300_SAC_XC Length=0.25852 Units=m
New Line.LINE113 Bus1=113 Bus2=114 phases=3 Linecode=3c_300_SAC_XC Length=0.25726 Units=m
New Line.LINE114 Bus1=114 Bus2=115 phases=3 Linecode=3c_300_SAC_XC Length=0.25812 Units=m
New Line.LINE115 Bus1=115 Bus2=116 phases=3 Linecode=3c_300_SAC_XC Length=0.25767 Units=m
New Line.LINE116 Bus1=116 Bus2=117 phases=3 Linecode=3c_300_SAC_XC Length=0.2583 Units=m
New Line.LINE117 Bus1=117 Bus2=118 phases=3 Linecode=3c_300_SAC_XC Length=3.6805 Units=m
New Line.LINE118 Bus1=118 Bus2=119 phases=3 Linecode=3c_300_SAC_XC Length=0.27293 Units=m
New Line.LINE119 Bus1=119 Bus2=120 phases=3 Linecode=3c_300_SAC_XC Length=0.27242 Units=m
New Line.LINE120 Bus1=120 Bus2=121 phases=3 Linecode=3c_300_SAC_XC Length=0.65867 Units=m
New Line.LINE121 Bus1=121 Bus2=122 phases=3 Linecode=3c_300_SAC_XC Length=0.18811 Units=m
New Line.LINE122 Bus1=122 Bus2=123 phases=3 Linecode=3c_300_SAC_XC Length=0.18645 Units=m
New Line.LINE123 Bus1=123 Bus2=124 phases=3 Linecode=3c_300_SAC_XC Length=0.23089 Units=m
New Line.LINE124 Bus1=124 Bus2=125 phases=3 Linecode=3c_300_SAC_XC Length=0.26314 Units=m
New Line.LINE125 Bus1=125 Bus2=126 phases=3 Linecode=3c_300_SAC_XC Length=29.9951 Units=m
New Line.LINE126 Bus1=126 Bus2=127 phases=3 Linecode=3c_300_SAC_XC Length=0.95847 Units=m
New Line.LINE127 Bus1=127 Bus2=128 phases=3 Linecode=3c_300_SAC_XC Length=0.3904 Units=m
New Line.LINE128 Bus1=128 Bus2=129 phases=3 Linecode=3c_300_SAC_XC Length=0.39102 Units=m
New Line.LINE129 Bus1=129 Bus2=130 phases=3 Linecode=3c_300_SAC_XC Length=0.18681 Units=m
New Line.LINE130 Bus1=130 Bus2=131 phases=3 Linecode=3c_300_SAC_XC Length=0.34318 Units=m
New Line.LINE131 Bus1=131 Bus2=132 phases=3 Linecode=3c_300_SAC_XC Length=0.56873 Units=m
New Line.LINE132 Bus1=132 Bus2=133 phases=3 Linecode=4c_.25 Length=1.5571 Units=m
New Line.LINE134 Bus1=133 Bus2=135 phases=3 Linecode=4c_.25 Length=7.5169 Units=m
New Line.LINE136 Bus1=135 Bus2=137 phases=3 Linecode=4c_.25 Length=1.1775 Units=m
New Line.LINE138 Bus1=137 Bus2=139 phases=3 Linecode=4c_.25 Length=0.406 Units=m
New Line.LINE140 Bus1=139 Bus2=141 phases=3 Linecode=4c_.25 Length=0.38134 Units=m
New Line.LINE142 Bus1=141 Bus2=143 phases=3 Linecode=4c_.25 Length=0.41665 Units=m
New Line.LINE144 Bus1=143 Bus2=145 phases=3 Linecode=4c_.25 Length=0.2658 Units=m
New Line.LINE146 Bus1=145 Bus2=147 phases=3 Linecode=4c_.25 Length=0.2377 Units=m
New Line.LINE148 Bus1=147 Bus2=149 phases=3 Linecode=4c_.25 Length=0.23755 Units=m
New Line.LINE150 Bus1=149 Bus2=151 phases=3 Linecode=4c_.25 Length=1.0978 Units=m
New Line.LINE152 Bus1=151 Bus2=153 phases=3 Linecode=4c_.25 Length=23.3695 Units=m
New Line.LINE155 Bus1=153 Bus2=156 phases=3 Linecode=2c_.04 Length=6.7095 Units=m
New Line.LINE1101 Bus1=196 Bus2=1102 phases=3 Linecode=2c_.04 Length=3.3635 Units=m
New Line.LINE1103 Bus1=197 Bus2=1104 phases=3 Linecode=2c_.04 Length=4.0329 Units=m
New Line.LINE1130 Bus1=1123 Bus2=1131 phases=3 Linecode=2c_.04 Length=7.2512 Units=m
New Line.LINE1140 Bus1=1131 Bus2=1141 phases=3 Linecode=2c_.04 Length=4.6693 Units=m
New Line.LINE1150 Bus1=1142 Bus2=1151 phases=3 Linecode=2c_.04 Length=6.0658 Units=m
New Line.LINE1207 Bus1=1198 Bus2=1208 phases=3 Linecode=4c_.25 Length=4.3073 Units=m
New Line.LINE1210 Bus1=1200 Bus2=1211 phases=3 Linecode=4c_.25 Length=11.0652 Units=m
New Line.LINE1211 Bus1=1201 Bus2=1212 phases=3 Linecode=2c_.04 Length=4.0654 Units=m
New Line.LINE1216 Bus1=1205 Bus2=1217 phases=3 Linecode=2c_.04 Length=4.0018 Units=m
New Line.LINE1220 Bus1=1208 Bus2=1221 phases=3 Linecode=4c_.25 Length=0.98109 Units=m
New Line.LINE1227 Bus1=1214 Bus2=1228 phases=3 Linecode=2c_.04 Length=4.2218 Units=m
New Line.LINE1231 Bus1=1218 Bus2=1232 phases=3 Linecode=2c_.04 Length=4.2077 Units=m
New Line.LINE1234 Bus1=1221 Bus2=1235 phases=3 Linecode=4c_.25 Length=4.282 Units=m
New Line.LINE1247 Bus1=1235 Bus2=1248 phases=3 Linecode=4c_.25 Length=5.9319 Units=m
New Line.LINE1257 Bus1=1243 Bus2=1258 phases=3 Linecode=2c_.04 Length=5.0758 Units=m
New Line.LINE1262 Bus1=1248 Bus2=1263 phases=3 Linecode=4c_.25 Length=1.3413 Units=m
New Line.LINE1266 Bus1=1251 Bus2=1267 phases=3 Linecode=2c_.04 Length=6.7974 Units=m
New Line.LINE1277 Bus1=1263 Bus2=1278 phases=3 Linecode=4c_.25 Length=4.6216 Units=m
New Line.LINE1280 Bus1=1265 Bus2=1281 phases=3 Linecode=2c_.04 Length=2.815 Units=m
New Line.LINE1293 Bus1=1278 Bus2=1294 phases=3 Linecode=2c_.04 Length=7.5007 Units=m
New Line.LINE1309 Bus1=1294 Bus2=1310 phases=3 Linecode=2c_.04 Length=2.467 Units=m
New Line.LINE1348 Bus1=1331 Bus2=1349 phases=3 Linecode=4c_.25 Length=3.9607 Units=m
New Line.LINE1367 Bus1=1349 Bus2=1368 phases=3 Linecode=2c_.04 Length=4.3534 Units=m
New Line.LINE1440 Bus1=1421 Bus2=1441 phases=3 Linecode=2c_.04 Length=8.22 Units=m
New Line.LINE1441 Bus1=1421 Bus2=1442 phases=3 Linecode=2c_.04 Length=3.4826 Units=m
New Line.LINE1445 Bus1=1424 Bus2=1446 phases=3 Linecode=2c_.04 Length=4.5578 Units=m
New Line.LINE1464 Bus1=1444 Bus2=1465 phases=3 Linecode=2c_.04 Length=4.384 Units=m
New Line.LINE1492 Bus1=1469 Bus2=1493 phases=3 Linecode=2c_25 Length=5.3207 Units=m
New Line.LINE1506 Bus1=1483 Bus2=1507 phases=3 Linecode=3c_.04 Length=3.5235 Units=m
New Line.LINE1517 Bus1=1494 Bus2=1518 phases=3 Linecode=2c_25 Length=6.9692 Units=m
New Line.LINE1527 Bus1=1504 Bus2=1528 phases=3 Linecode=2c_.04 Length=7.2537 Units=m
New Line.LINE1528 Bus1=1504 Bus2=1529 phases=3 Linecode=4c_.06 Length=1.6403 Units=m
New Line.LINE1530 Bus1=1505 Bus2=1531 phases=3 Linecode=3c_.04 Length=5.3906 Units=m
New Line.LINE1559 Bus1=1534 Bus2=1560 phases=3 Linecode=2c_.04 Length=4.8635 Units=m
New Line.LINE1589 Bus1=1565 Bus2=1590 phases=3 Linecode=2c_.04 Length=3.7153 Units=m
New Line.LINE1603 Bus1=1577 Bus2=1604 phases=3 Linecode=4c_.25 Length=4.3797 Units=m
New Line.LINE1619 Bus1=1592 Bus2=1620 phases=3 Linecode=2c_.04 Length=4.7061 Units=m
New Line.LINE1634 Bus1=1604 Bus2=1635 phases=3 Linecode=4c_.25 Length=11.0783 Units=m
New Line.LINE1638 Bus1=1609 Bus2=1639 phases=3 Linecode=4c_.04 Length=1.1767 Units=m
New Line.LINE1668 Bus1=1639 Bus2=1669 phases=3 Linecode=4c_.04 Length=7.8365 Units=m
New Line.LINE1699 Bus1=1667 Bus2=1700 phases=3 Linecode=2c_.04 Length=5.4667 Units=m
New Line.LINE1701 Bus1=1668 Bus2=1702 phases=3 Linecode=2c_.04 Length=4.8917 Units=m
New Line.LINE1702 Bus1=1669 Bus2=1703 phases=3 Linecode=16_PSC Length=7.7524 Units=m
New Line.LINE1821 Bus1=1795 Bus2=1822 phases=3 Linecode=16_PSC Length=4.5613 Units=m
New Line.LINE1822 Bus1=1795 Bus2=1823 phases=3 Linecode=16_PSC Length=4.5613 Units=m
New Line.LINE1839 Bus1=1812 Bus2=1840 phases=3 Linecode=2c_.04 Length=2.5106 Units=m
New Line.LINE1865 Bus1=1842 Bus2=1866 phases=3 Linecode=2c_.04 Length=5.6608 Units=m
New Line.LINE1889 Bus1=1868 Bus2=1890 phases=3 Linecode=2c_.04 Length=4.2233 Units=m
New Line.LINE1895 Bus1=1874 Bus2=1896 phases=3 Linecode=16_PSC Length=2.5914 Units=m
New Line.LINE1896 Bus1=1874 Bus2=1897 phases=3 Linecode=16_PSC Length=2.5914 Units=m
New Line.LINE1938 Bus1=1924 Bus2=1939 phases=3 Linecode=4c_.06 Length=3.6813 Units=m
New Line.LINE1940 Bus1=1924 Bus2=1941 phases=3 Linecode=2c_.04 Length=7.9167 Units=m
New Line.LINE1950 Bus1=1935 Bus2=1951 phases=3 Linecode=2c_.04 Length=13.2093 Units=m
New Line.LINE1955 Bus1=1939 Bus2=1956 phases=3 Linecode=4c_.06 Length=6.9605 Units=m
New Line.LINE1957 Bus1=1941 Bus2=1958 phases=3 Linecode=2c_.04 Length=5.1934 Units=m
New Line.LINE1967 Bus1=1951 Bus2=1968 phases=3 Linecode=2c_.04 Length=5.0257 Units=m
New Line.LINE1973 Bus1=1956 Bus2=1974 phases=3 Linecode=4c_.06 Length=4.4292 Units=m
New Line.LINE1974 Bus1=1956 Bus2=1975 phases=3 Linecode=4c_.06 Length=11.3411 Units=m
New Line.LINE1990 Bus1=1974 Bus2=1991 phases=3 Linecode=2c_.04 Length=8.3175 Units=m
New Line.LINE1991 Bus1=1974 Bus2=1992 phases=3 Linecode=4c_.06 Length=15.1499 Units=m
New Line.LINE1993 Bus1=1975 Bus2=1994 phases=3 Linecode=4c_.06 Length=2.3398 Units=m
New Line.LINE11011 Bus1=1991 Bus2=11012 phases=3 Linecode=2c_.04 Length=5.2332 Units=m
New Line.LINE11012 Bus1=1992 Bus2=11013 phases=3 Linecode=2c_.04 Length=2.0755 Units=m
New Line.LINE11015 Bus1=1994 Bus2=11016 phases=3 Linecode=4c_.06 Length=0.17626 Units=m
New Line.LINE11024 Bus1=11002 Bus2=11025 phases=3 Linecode=2c_.04 Length=5.9953 Units=m
New Line.LINE11025 Bus1=11002 Bus2=11026 phases=3 Linecode=2c_.04 Length=5.9953 Units=m
New Line.LINE11036 Bus1=11013 Bus2=11037 phases=3 Linecode=2c_.04 Length=0.24402 Units=m
New Line.LINE11039 Bus1=11016 Bus2=11040 phases=3 Linecode=4c_.06 Length=2.5538 Units=m
New Line.LINE11044 Bus1=11021 Bus2=11045 phases=3 Linecode=2c_.04 Length=6.3831 Units=m
New Line.LINE11045 Bus1=11021 Bus2=11046 phases=3 Linecode=2c_.04 Length=6.3831 Units=m
New Line.LINE11058 Bus1=11037 Bus2=11059 phases=3 Linecode=2c_.04 Length=0.25806 Units=m
New Line.LINE11061 Bus1=11040 Bus2=11062 phases=3 Linecode=2c_.04 Length=0.97417 Units=m
New Line.LINE11069 Bus1=11050 Bus2=11070 phases=3 Linecode=2c_.04 Length=5.3474 Units=m
New Line.LINE11070 Bus1=11050 Bus2=11071 phases=3 Linecode=2c_.04 Length=5.3474 Units=m
New Line.LINE11078 Bus1=11059 Bus2=11079 phases=3 Linecode=2c_.04 Length=0.25175 Units=m
New Line.LINE11081 Bus1=11062 Bus2=11082 phases=3 Linecode=2c_.04 Length=0.48473 Units=m
New Line.LINE11096 Bus1=11079 Bus2=11097 phases=3 Linecode=2c_.04 Length=9.0198 Units=m
New Line.LINE11098 Bus1=11082 Bus2=11099 phases=3 Linecode=2c_.04 Length=0.32199 Units=m
New Line.LINE11113 Bus1=11097 Bus2=11114 phases=3 Linecode=2c_.04 Length=5.3997 Units=m
New Line.LINE11115 Bus1=11099 Bus2=11116 phases=3 Linecode=2c_.04 Length=0.27115 Units=m
New Line.LINE11118 Bus1=11101 Bus2=11119 phases=3 Linecode=2c_.04 Length=3.895 Units=m
New Line.LINE11119 Bus1=11101 Bus2=11120 phases=3 Linecode=2c_.04 Length=3.895 Units=m
New Line.LINE11124 Bus1=11106 Bus2=11125 phases=3 Linecode=2c_.04 Length=5.937 Units=m
New Line.LINE11125 Bus1=11106 Bus2=11126 phases=3 Linecode=2c_.04 Length=5.937 Units=m
New Line.LINE11135 Bus1=11116 Bus2=11136 phases=3 Linecode=2c_.04 Length=1.0548 Units=m
New Line.LINE11152 Bus1=11136 Bus2=11153 phases=3 Linecode=2c_.04 Length=2.1528 Units=m
New Line.LINE11164 Bus1=11147 Bus2=11165 phases=3 Linecode=2c_.04 Length=4.1276 Units=m
New Line.LINE11170 Bus1=11153 Bus2=11171 phases=3 Linecode=2c_.04 Length=1.4199 Units=m
New Line.LINE11173 Bus1=11156 Bus2=11174 phases=3 Linecode=2c_.04 Length=4.9159 Units=m
New Line.LINE11185 Bus1=11171 Bus2=11186 phases=3 Linecode=2c_.04 Length=4.4648 Units=m
New Line.LINE11199 Bus1=11186 Bus2=11200 phases=3 Linecode=2c_.04 Length=1.4419 Units=m
New Line.LINE11212 Bus1=11200 Bus2=11213 phases=3 Linecode=2c_.04 Length=0.55458 Units=m
New Line.LINE11222 Bus1=11210 Bus2=11223 phases=3 Linecode=4c_.6 Length=1.3316 Units=m
New Line.LINE11225 Bus1=11213 Bus2=11226 phases=3 Linecode=2c_.04 Length=0.50522 Units=m
New Line.LINE11235 Bus1=11223 Bus2=11236 phases=3 Linecode=4c_.6 Length=0.86963 Units=m
New Line.LINE11238 Bus1=11226 Bus2=11239 phases=3 Linecode=2c_.04 Length=0.34457 Units=m
New Line.LINE11247 Bus1=11235 Bus2=11248 phases=3 Linecode=2c_.04 Length=7.6118 Units=m
New Line.LINE11249 Bus1=11236 Bus2=11250 phases=3 Linecode=4c_.6 Length=1.6778 Units=m
New Line.LINE11251 Bus1=11238 Bus2=11252 phases=3 Linecode=2c_.04 Length=2.3274 Units=m
New Line.LINE11252 Bus1=11238 Bus2=11253 phases=3 Linecode=2c_.04 Length=2.3274 Units=m
New Line.LINE11253 Bus1=11239 Bus2=11254 phases=3 Linecode=2c_.04 Length=8.006 Units=m
New Line.LINE11254 Bus1=11239 Bus2=11255 phases=3 Linecode=2c_.04 Length=8.006 Units=m
New Line.LINE11265 Bus1=11250 Bus2=11266 phases=3 Linecode=4c_.6 Length=1.0995 Units=m
New Line.LINE11271 Bus1=11260 Bus2=11272 phases=3 Linecode=4c_.06 Length=0.47116 Units=m
New Line.LINE11278 Bus1=11266 Bus2=11279 phases=3 Linecode=4c_.6 Length=0.85784 Units=m
New Line.LINE11280 Bus1=11268 Bus2=11281 phases=3 Linecode=2c_.04 Length=5.4981 Units=m
New Line.LINE11281 Bus1=11268 Bus2=11282 phases=3 Linecode=2c_.04 Length=5.4981 Units=m
New Line.LINE11286 Bus1=11272 Bus2=11287 phases=3 Linecode=4c_.06 Length=0.31622 Units=m
New Line.LINE11293 Bus1=11279 Bus2=11294 phases=3 Linecode=4c_.6 Length=1.0151 Units=m
New Line.LINE11298 Bus1=11287 Bus2=11299 phases=3 Linecode=4c_.06 Length=0.40701 Units=m
New Line.LINE11305 Bus1=11294 Bus2=11306 phases=3 Linecode=4c_.6 Length=1.8543 Units=m
New Line.LINE11308 Bus1=11297 Bus2=11309 phases=3 Linecode=4c_.04 Length=11.433 Units=m
New Line.LINE11311 Bus1=11299 Bus2=11312 phases=3 Linecode=4c_.06 Length=1.5325 Units=m
New Line.LINE11315 Bus1=11303 Bus2=11316 phases=3 Linecode=2c_.04 Length=6.8632 Units=m
New Line.LINE11316 Bus1=11303 Bus2=11317 phases=3 Linecode=2c_.04 Length=6.8632 Units=m
New Line.LINE11319 Bus1=11306 Bus2=11320 phases=3 Linecode=4c_.6 Length=1.5147 Units=m
New Line.LINE11326 Bus1=11312 Bus2=11327 phases=3 Linecode=4c_.06 Length=0.68889 Units=m
New Line.LINE11331 Bus1=11320 Bus2=11332 phases=3 Linecode=4c_.6 Length=1.6038 Units=m
New Line.LINE11333 Bus1=11322 Bus2=11334 phases=3 Linecode=2c_.04 Length=5.1168 Units=m
New Line.LINE11334 Bus1=11322 Bus2=11335 phases=3 Linecode=2c_.04 Length=5.1168 Units=m
New Line.LINE11339 Bus1=11327 Bus2=11340 phases=3 Linecode=4c_.06 Length=0.75527 Units=m
New Line.LINE11343 Bus1=11331 Bus2=11344 phases=3 Linecode=2c_.04 Length=3.3703 Units=m
New Line.LINE11344 Bus1=11331 Bus2=11345 phases=3 Linecode=2c_.04 Length=3.3703 Units=m
New Line.LINE11345 Bus1=11332 Bus2=11346 phases=3 Linecode=4c_.6 Length=1.4129 Units=m
New Line.LINE11351 Bus1=11340 Bus2=11352 phases=3 Linecode=4c_.06 Length=7.4086 Units=m
New Line.LINE11354 Bus1=11342 Bus2=11355 phases=3 Linecode=2c_.04 Length=3.7568 Units=m
New Line.LINE11356 Bus1=11346 Bus2=11357 phases=3 Linecode=4c_.6 Length=1.0361 Units=m
New Line.LINE11362 Bus1=11352 Bus2=11363 phases=3 Linecode=4c_.06 Length=3.1932 Units=m
New Line.LINE11366 Bus1=11357 Bus2=11367 phases=3 Linecode=4c_.06 Length=0.92195 Units=m
New Line.LINE11368 Bus1=11359 Bus2=11369 phases=3 Linecode=2c_.04 Length=6.5888 Units=m
New Line.LINE11370 Bus1=11360 Bus2=11371 phases=3 Linecode=2c_.04 Length=5.1502 Units=m
New Line.LINE11374 Bus1=11363 Bus2=11375 phases=3 Linecode=4c_.06 Length=0.92159 Units=m
New Line.LINE11379 Bus1=11367 Bus2=11380 phases=3 Linecode=4c_.06 Length=0.62522 Units=m
New Line.LINE11384 Bus1=11375 Bus2=11385 phases=3 Linecode=4c_.06 Length=0.50904 Units=m
New Line.LINE11389 Bus1=11380 Bus2=11390 phases=3 Linecode=4c_.06 Length=0.7203 Units=m
New Line.LINE11394 Bus1=11385 Bus2=11395 phases=3 Linecode=4c_.06 Length=1.1883 Units=m
New Line.LINE11396 Bus1=11386 Bus2=11397 phases=3 Linecode=2c_.04 Length=3.2571 Units=m
New Line.LINE11400 Bus1=11390 Bus2=11401 phases=3 Linecode=4c_.06 Length=0.11597 Units=m
New Line.LINE11405 Bus1=11395 Bus2=11406 phases=3 Linecode=4c_.06 Length=0.91823 Units=m
New Line.LINE11410 Bus1=11401 Bus2=11411 phases=3 Linecode=4c_.06 Length=2.9302 Units=m
New Line.LINE11412 Bus1=11402 Bus2=11413 phases=3 Linecode=2c_.04 Length=3.4625 Units=m
New Line.LINE11416 Bus1=11406 Bus2=11417 phases=3 Linecode=4c_.06 Length=1.5919 Units=m
New Line.LINE11418 Bus1=11408 Bus2=11419 phases=3 Linecode=2c_.04 Length=4.4401 Units=m
New Line.LINE11419 Bus1=11408 Bus2=11420 phases=3 Linecode=2c_.04 Length=4.4401 Units=m
New Line.LINE11422 Bus1=11411 Bus2=11423 phases=3 Linecode=4c_.06 Length=0.59832 Units=m
New Line.LINE11427 Bus1=11417 Bus2=11428 phases=3 Linecode=2c_.04 Length=0.86923 Units=m
New Line.LINE11433 Bus1=11423 Bus2=11434 phases=3 Linecode=4c_.06 Length=2.3205 Units=m
New Line.LINE11435 Bus1=11424 Bus2=11436 phases=3 Linecode=2c_.04 Length=4.3498 Units=m
New Line.LINE11439 Bus1=11428 Bus2=11440 phases=3 Linecode=2c_.04 Length=5.2926 Units=m
New Line.LINE11445 Bus1=11434 Bus2=11446 phases=3 Linecode=4c_.06 Length=2.8148 Units=m
New Line.LINE11451 Bus1=11440 Bus2=11452 phases=3 Linecode=2c_.04 Length=7.0102 Units=m
New Line.LINE11457 Bus1=11446 Bus2=11458 phases=3 Linecode=2c_.04 Length=6.9505 Units=m
New Line.LINE11466 Bus1=11458 Bus2=11467 phases=3 Linecode=2c_.04 Length=5.6817 Units=m
New Line.LINE11474 Bus1=11467 Bus2=11475 phases=3 Linecode=2c_.04 Length=0.49008 Units=m
New Line.LINE11475 Bus1=11467 Bus2=11476 phases=3 Linecode=2c_.04 Length=2.0999 Units=m
New Line.LINE11477 Bus1=11469 Bus2=11478 phases=3 Linecode=2c_.04 Length=6.0455 Units=m
New Line.LINE11485 Bus1=11475 Bus2=11486 phases=3 Linecode=3c_.04 Length=4.0441 Units=m
...
